IEEE data/010_bus/ieee/010ieee.dat
 00/00/01                      100.0  0    0 0                                                                                                                                                                                                                                                             
BUS DATA FOLLOWS                   10 ITEMS
   1 bus-1   100   1  1  3 0.98  0.     0.       0.        3557.1  624.0061 100.    .98    999900 -99990    0.      0.        0                                                                                                                                                                            
   2 bus-2   100   1  1    1.095 -3.923 0.       0.        0.      0.       100.    1.       0.     0.      0.      0.        0                                                                                                                                                                            
   3 bus-3   100   1  1  2 0.964 -6.959 0.       0.        1500.   18.03962 100.    .964   725.   -200.     0.      0.        0                                                                                                                                                                            
   4 bus-4   100   1  1    1.09  -10.76 0.       0.        0.      0.       100.    1.       0.     0.      0.      0.        0                                                                                                                                                                            
   5 bus-5   100   1  1    1.079 -25.01 0.       0.        0.      0.       100.    1.       0.     0.      0.      8.68      0                                                                                                                                                                            
   6 bus-6   100   1  1  2 0.972 -21.22 0.       0.        1094.   1.203582 100.    .972   700.   -200.     0.      0.        0                                                                                                                                                                            
   7 bus-7   100   1  1    0.999 -30.27 3000.    1800.     0.      0.       100.    1.       0.     0.      0.     15.        0                                                                                                                                                                            
   8 bus-8   100   1  1    1.012 -30.26 0.       0.        0.      0.       100.    1.       0.     0.      0.      3.        0                                                                                                                                                                            
   9 bus-9   100   1  1    0.977 -35.49 0.       0.        0.      0.       100.    1.       0.     0.      0.      0.        0                                                                                                                                                                            
  10 bus-10  100   1  1    1.002 -37.11 3000.    0.        0.      0.       100.    1.       0.     0.      0.      0.        0                                                                                                                                                                            
-999
BRANCH DATA FOLLOWS                   10 ITEMS
   2    1  1  1 1 2  0.        0.00183     0.     0    0     0      0    0  1.1291 0      0      0       0      0      0                                                                                                                                                                                   
   4    3  1  1 1 2  0.        0.004117    0.     0    0     0      0    0  1.1291 0      0      0       0      0      0                                                                                                                                                                                   
   5    6  1  1 1 2  0.        0.005718    0.     0    0     0      0    0  1.1082 0      0      0       0      0      0                                                                                                                                                                                   
   2    4  1  1 1    0.        0.004       0.     0    0     0      0    0  0      0      0      0       0      0      0                                                                                                                                                                                   
   4    5  1  1 1    0.0015    0.0288      2.346  0    0     0      0    0  0      0      0      0       0      0      0                                                                                                                                                                                   
   4    5  1  1 2    0.0015    0.0288      2.346  0    0     0      0    0  0      0      0      0       0      0      0                                                                                                                                                                                   
   4    5  1  1 3    0.0015    0.0288      2.346  0    0     0      0    0  0      0      0      0       0      0      0                                                                                                                                                                                   
   4    5  1  1 4    0.0015    0.0288      2.346  0    0     0      0    0  0      0      0      0       0      0      0                                                                                                                                                                                   
   4    5  1  1 5    0.0015    0.0288      2.346  0    0     0      0    0  0      0      0      0       0      0      0                                                                                                                                                                                   
   8    9  1  1 1    0.000909  0.00303     0.     0    0     0      0    0  0      0      0      0       0      0      0                                                                                                                                                                                   
   5    7  1  1   2  0.        0.003092           0    0     0      0    0  1.066  0      0      0       0      0      0                                                                                                                                                                                   
   5    8  1  1   2  0.        0.003057           0    0     0      0    0  1.06   0      0      0       0      0      0                                                                                                                                                                                   
   9   10  1  1   2  0.        0.00095            0    0     0      0    0  0.9748 0      0      0       0      0      0                                                                                                                                                                                   
-999
LOSS ZONES FOLLOWS   0 ITEMS
-99
INTERCHANGE DATA FOLLOWS      0 ITEMS
-9
TIE LINES FOLLOWS             0 ITEMS
-999
END OF DATA
